/*--------------------------------*- C++ -*----------------------------------*\
| =========                 |                                                 |
| \\      /  F ield         | OpenFOAM: The Open Source CFD Toolbox           |
|  \\    /   O peration     | Version:  4.1                                   |
|   \\  /    A nd           | Web:      www.OpenFOAM.org                      |
|    \\/     M anipulation  |                                                 |
\*---------------------------------------------------------------------------*/
FoamFile
{
    version     2.0;
    format      ascii;
    class       volScalarField;
    object      p;
}
// * * * * * * * * * * * * * * * * * * * * * * * * * * * * * * * * * * * * * //

dimensions      [0 2 -2 0 0 0 0];

internalField   uniform 0;

boundaryField
{
    fixedWallsLeftTop
    {
        type            zeroGradient;
        nFaces          80;
        startFace       3240;
    }
    backFaceLeftTop
    {
        type            zeroGradient;
        nFaces          1680;
        startFace       3320;
    }
    frontFaceLeftTop
    {
        type            zeroGradient;
        nFaces          1680;
        startFace       5000;
    }
    symmetryWallLeftTop
    {
        type            fixedValue;
        value           uniform 0;    
        nFaces          40;
        startFace       6680;
    }
    topToBottom
    {
        type            zeroGradient;
        nFaces          80;
        startFace       6720;
    }
    plug
    {
        type            cyclicAMI;
        neighbourPatch  outlet;
        transform       noOrdering;
        nFaces          40;
        startFace       6800;
    }
    fixedWallsChannel
    {
        type            zeroGradient;
        nFaces          10;
        startFace       6840;
    }
    inlet
    {
        type            zeroGradient;
        nFaces          5;
        startFace       6850;
    }
    outlet
    {
        type            cyclicAMI;
        neighbourPatch  plug;
        transform       noOrdering;
        nFaces          5;
        startFace       6855;
    }
    backFaceInletChannel
    {
        type            zeroGradient;
        nFaces          25;
        startFace       6860;
    }
    frontFaceInletChannel
    {
        type            zeroGradient;
        nFaces          25;
        startFace       6885;
    }

}

// ************************************************************************* //
