/*--------------------------------*- C++ -*----------------------------------*\
| =========                 |                                                 |
| \\      /  F ield         | OpenFOAM: The Open Source CFD Toolbox           |
|  \\    /   O peration     | Version:  4.1                                   |
|   \\  /    A nd           | Web:      www.OpenFOAM.org                      |
|    \\/     M anipulation  |                                                 |
\*---------------------------------------------------------------------------*/
FoamFile
{
    version     2.0;
    format      ascii;
    class       volScalarField;
    location    "0";
    object      k;
}
// * * * * * * * * * * * * * * * * * * * * * * * * * * * * * * * * * * * * * //

dimensions      [0 2 -2 0 0 0 0];

internalField   uniform 1.12;

boundaryField
{
    courseFace
    {
         type            zeroGradient;
    }
    courseCyclicBoundary
    {
        type            cyclicAMI;
    }
    courseWalls
    {
        type            kqRWallFunction;
        value           uniform 1.12;
    }
    freeBoundaryCourse
    {
         type            zeroGradient;
    }
    courseSymmetryWalls
    {
         type            symmetryPlane;
    }
    fineSymmetryWall
    {
        type            symmetryPlane;
    }
    fineWalls
    {
        type            kqRWallFunction;
        value           uniform 1.12;
    }
    fineCyclicBoundary
    {
        type            cyclicAMI;
    }
    fineplug
    {
        type            cyclicAMI;
    }
    faceFine
    {
         type            zeroGradient;
    }
    inletFace
    {
        type            zeroGradient;
    }
    inlet
    {
        type            fixedValue;
        value           uniform 1.12;
    }
    inletWalls
    {
        type            kqRWallFunction;
        value           uniform 1.12;
    }
    outletInlet
    {
        type            cyclicAMI;
    }
}


// ************************************************************************* //
