/*--------------------------------*- C++ -*----------------------------------*\
| =========                 |                                                 |
| \\      /  F ield         | OpenFOAM: The Open Source CFD Toolbox           |
|  \\    /   O peration     | Version:  4.1                                   |
|   \\  /    A nd           | Web:      www.OpenFOAM.org                      |
|    \\/     M anipulation  |                                                 |
\*---------------------------------------------------------------------------*/
FoamFile
{
    version     2.0;
    format      ascii;
    class       volScalarField;
    object      p;
}
// * * * * * * * * * * * * * * * * * * * * * * * * * * * * * * * * * * * * * //

dimensions      [0 2 -2 0 0 0 0];

internalField   uniform 0;

boundaryField
{
    sourceFaceleft
    {
        type            fixedValue;
        value           uniform 0;
        nFaces          400;
        startFace       3880;
    }
    destinationFaceleft
    {
        type            fixedValue;
        value           uniform 0;
        nFaces          400;
        startFace       4280;
    }
    channelWallsleft
    {
        type            zeroGradient;
        nFaces          40;
        startFace       4680;
    }
    leftRightWallleft
    {
        type            cyclic;
        nFaces          20;
        startFace       4720;
    }
    inlet
    {
        type            fixedValue;
        value           uniform 0;
        nFaces          20;
        startFace       4740;
    }
    leftRightWallsright
    {
        type            cyclic;
        nFaces          40;
        startFace       4760;
    }
    outlet
    {
        type            zeroGradient;
        nFaces          40;
        startFace       4800;
    }
    channelWallsright
    {
        type            zeroGradient;
        nFaces          80;
        startFace       4840;
    }
    destinationFaceright
    {
        type            fixedValue;
        value           uniform 0;
        nFaces          1600;
        startFace       4920;
    }
    sourceFaceright
    {
        type            fixedValue;
        value           uniform 0;
        nFaces          1600;
        startFace       6520;
    }

}

// ************************************************************************* //
